Version 4
SHEET 1 880 680
WIRE -112 96 -160 96
WIRE 16 96 16 48
WIRE 16 96 -112 96
WIRE 192 96 16 96
WIRE 192 112 192 96
WIRE -208 144 -336 144
WIRE 128 144 -96 144
WIRE 128 176 -96 176
WIRE 256 224 256 160
WIRE -112 240 -112 96
WIRE -112 240 -160 240
WIRE -208 288 -336 288
WIRE -96 288 -96 176
FLAG -336 144 IN1
FLAG -336 288 IN2
FLAG 16 48 VDD
IOPIN 16 48 In
FLAG 256 224 VOUT
IOPIN 256 224 Out
SYMBOL NOR 192 160 R0
SYMATTR InstName X1
SYMBOL INVERTOR -160 144 R0
SYMATTR InstName X2
SYMBOL INVERTOR -160 288 R0
SYMATTR InstName X3
