Version 4
SHEET 1 880 680
WIRE -208 -96 -816 -96
WIRE -272 -64 -624 -64
WIRE 16 -48 -144 -48
WIRE 240 -48 16 -48
WIRE 16 16 16 -48
WIRE 240 80 240 -48
WIRE -272 128 -272 -32
WIRE -624 160 -624 -64
WIRE -272 160 -272 128
FLAG 16 96 0
FLAG 240 144 0
FLAG -624 240 0
FLAG -816 -16 0
FLAG -272 208 0
SYMBOL voltage -624 144 R0
WINDOW 123 0 0 Left 0
WINDOW 39 0 0 Left 0
SYMATTR InstName V1
SYMATTR Value PULSE(0 1 0n 10p 10p 0.8n 1.6n)
SYMBOL res 0 0 R0
SYMATTR InstName R1
SYMATTR Value 100k
SYMBOL cap 224 80 R0
SYMATTR InstName C1
SYMATTR Value 100f
SYMBOL voltage -816 -112 R0
WINDOW 123 0 0 Left 0
WINDOW 39 0 0 Left 0
SYMATTR InstName VDD
SYMATTR Value 1
SYMBOL voltage -272 112 R0
WINDOW 3 24 44 Left 2
WINDOW 123 0 0 Left 0
WINDOW 39 0 0 Left 0
SYMATTR Value PULSE(0 1 0 10p 10p 1.6n 3.2n)
SYMATTR InstName V2
SYMBOL NOR -208 -48 R0
SYMATTR InstName X1
TEXT -632 -264 Left 2 !.include 90nm_bulk.txt
TEXT -616 -312 Left 2 !.tran 0 100n 0 1p
