Version 4
SHEET 1 880 680
WIRE 336 96 336 48
WIRE 336 96 224 96
WIRE 448 96 336 96
WIRE 160 128 -16 128
WIRE 400 144 288 144
WIRE 160 176 160 160
WIRE 160 176 -16 176
WIRE 512 208 512 144
FLAG -16 128 IN1
FLAG -16 176 IN2
FLAG 512 208 OUT
IOPIN 512 208 Out
FLAG 336 48 VDD
IOPIN 336 48 In
SYMBOL NOR 224 144 R0
SYMATTR InstName X1
SYMBOL INVERTOR 448 144 R0
SYMATTR InstName X2
