Version 4
SHEET 1 880 680
WIRE 224 -272 48 -272
WIRE 160 -176 -448 -176
WIRE 96 -80 -48 -80
WIRE 400 -64 272 -64
WIRE 528 -64 400 -64
WIRE 528 -48 528 -64
WIRE 80 16 -480 16
WIRE 608 48 352 48
WIRE 752 48 608 48
WIRE 224 64 224 -272
WIRE 64 80 -128 80
WIRE 160 80 160 -176
WIRE 96 112 96 -80
WIRE 160 112 96 112
WIRE 272 112 272 -64
WIRE 400 128 368 128
WIRE 544 128 400 128
WIRE 80 144 80 16
WIRE 160 144 80 144
WIRE 352 144 352 48
WIRE 352 144 272 144
WIRE 544 144 544 128
WIRE 48 176 -512 176
WIRE 64 176 64 80
WIRE 160 176 64 176
WIRE 368 176 368 128
WIRE 368 176 272 176
WIRE 48 208 48 176
WIRE 160 208 48 208
WIRE 352 208 272 208
WIRE 160 240 -144 240
WIRE 352 240 352 208
WIRE 608 240 352 240
WIRE 752 240 608 240
WIRE 752 256 752 240
WIRE 160 272 80 272
WIRE 160 304 128 304
WIRE 80 336 80 272
WIRE 80 336 -528 336
WIRE 272 336 272 240
WIRE 400 336 272 336
WIRE 544 336 400 336
WIRE -528 352 -528 336
WIRE 400 368 400 336
WIRE 128 384 128 304
WIRE 128 384 -112 384
WIRE 544 384 544 336
FLAG 400 16 0
FLAG 528 16 0
FLAG 608 128 0
FLAG 752 112 0
FLAG 400 208 0
FLAG 544 208 0
FLAG 608 320 0
FLAG 752 320 0
FLAG 400 448 0
FLAG 544 448 0
FLAG -448 -96 0
FLAG -48 0 0
FLAG -128 160 0
FLAG -480 96 0
FLAG -512 256 0
FLAG -144 320 0
FLAG -112 464 0
FLAG -528 432 0
FLAG 48 -192 0
SYMBOL SUMMER_ON_NOR 224 192 R0
SYMATTR InstName X1
SYMBOL res 592 32 R0
SYMATTR InstName R1
SYMATTR Value 100k
SYMBOL res 384 112 R0
SYMATTR InstName R2
SYMATTR Value 100k
SYMBOL res 592 224 R0
SYMATTR InstName R3
SYMATTR Value 100k
SYMBOL res 384 352 R0
SYMATTR InstName R4
SYMATTR Value 100k
SYMBOL res 384 -80 R0
SYMATTR InstName R5
SYMATTR Value 100k
SYMBOL cap 512 -48 R0
SYMATTR InstName C1
SYMATTR Value 100f
SYMBOL cap 736 48 R0
SYMATTR InstName C2
SYMATTR Value 100f
SYMBOL cap 528 144 R0
SYMATTR InstName C3
SYMATTR Value 100f
SYMBOL cap 736 256 R0
SYMATTR InstName C4
SYMATTR Value 100f
SYMBOL cap 528 384 R0
SYMATTR InstName C5
SYMATTR Value 100f
SYMBOL voltage -48 -96 R0
WINDOW 123 0 0 Left 0
WINDOW 39 0 0 Left 0
SYMATTR InstName V1
SYMATTR Value PULSE(0 1 0 10p 10p 4n 8n)
SYMBOL voltage -480 0 R0
WINDOW 123 0 0 Left 0
WINDOW 39 0 0 Left 0
SYMATTR InstName V2
SYMATTR Value PULSE(0 1 0 10p 10p 8n 16n)
SYMBOL voltage -128 64 R0
WINDOW 123 0 0 Left 0
WINDOW 39 0 0 Left 0
SYMATTR InstName V3
SYMATTR Value PULSE(0 1 0 10p 10p 16n 32n)
SYMBOL voltage -512 160 R0
WINDOW 123 0 0 Left 0
WINDOW 39 0 0 Left 0
SYMATTR InstName V4
SYMATTR Value PULSE(0 1 0 10p 10p 32n 64n)
SYMBOL voltage -144 224 R0
WINDOW 123 0 0 Left 0
WINDOW 39 0 0 Left 0
SYMATTR InstName V5
SYMATTR Value PULSE(0 1 0 10p 10p 64n 128n)
SYMBOL voltage -528 336 R0
WINDOW 123 0 0 Left 0
WINDOW 39 0 0 Left 0
SYMATTR InstName V6
SYMATTR Value PULSE(0 1 0 10p 10p 128n 256n)
SYMBOL voltage -112 368 R0
WINDOW 123 0 0 Left 0
WINDOW 39 0 0 Left 0
SYMATTR InstName V7
SYMATTR Value PULSE(0 1 0 10p 10p 256n 512n)
SYMBOL voltage -448 -192 R0
WINDOW 123 0 0 Left 0
WINDOW 39 0 0 Left 0
SYMATTR InstName V8
SYMATTR Value PULSE(0 1 0 10p 10p 2n 4n)
SYMBOL voltage 48 -288 R0
WINDOW 123 0 0 Left 0
WINDOW 39 0 0 Left 0
SYMATTR InstName V9
SYMATTR Value 1
TEXT -360 -288 Left 2 !.include 90nm_bulk.txt
TEXT -360 -336 Left 2 !.tran 0 100n 0 1p
