Version 4
SHEET 1 880 680
WIRE 256 144 224 144
WIRE 192 176 16 176
WIRE 368 192 320 192
WIRE 112 208 112 112
WIRE 192 208 176 208
WIRE 432 224 432 144
WIRE 64 256 16 256
WIRE 176 256 176 208
WIRE 368 256 368 192
WIRE 592 288 496 288
WIRE 368 304 320 304
WIRE 256 320 208 320
WIRE 192 336 16 336
WIRE 192 352 192 336
WIRE 320 368 320 304
WIRE 112 384 -64 384
WIRE 64 432 16 432
WIRE 192 432 192 384
WIRE 192 432 176 432
FLAG 112 112 VDD
IOPIN 112 112 In
FLAG 16 256 IN1
IOPIN 16 256 In
FLAG 16 432 IN2
IOPIN 16 432 In
FLAG 16 336 IN1
IOPIN 16 336 In
FLAG 592 288 VOUT
IOPIN 592 288 Out
FLAG 16 176 IN2
IOPIN 16 176 In
FLAG -64 384 VDD
IOPIN -64 384 In
FLAG 208 320 VDD
IOPIN 208 320 In
FLAG 224 144 VDD
IOPIN 224 144 In
FLAG 432 144 VDD
IOPIN 432 144 In
SYMBOL INVERTOR 112 256 R0
SYMATTR InstName X1
SYMBOL INVERTOR 112 432 R0
SYMATTR InstName X2
SYMBOL AND_ON_NOR 256 192 R0
SYMATTR InstName X3
SYMBOL AND_ON_NOR 256 368 R0
SYMATTR InstName X4
SYMBOL OR_ON_NOR 432 272 R0
SYMATTR InstName X5
